/*--------------------------------*- C++ -*----------------------------------*\
| =========                 |                                                 |
| \\      /  F ield         | OpenFOAM: The Open Source CFD Toolbox           |
|  \\    /   O peration     | Version:  5.x                                   |
|   \\  /    A nd           | Web:      www.OpenFOAM.org                      |
|    \\/     M anipulation  |                                                 |
\*---------------------------------------------------------------------------*/
FoamFile
{
    version     2.0;
    format      ascii;
    class       featureEdgeMesh;
    location    "constant/triSurface";
    object      ribbon.eMesh;
}
// * * * * * * * * * * * * * * * * * * * * * * * * * * * * * * * * * * * * * //


// points:

1027
(
(-0.00999999977648 0 -0.0500000007451)
(-0.00984374992549 0 -0.0500000007451)
(-0.00999999977648 0 0.0500000007451)
(-0.00984374992549 0 0.0500000007451)
(-0.00968753732741 -1.23935139928e-09 -0.0500000007451)
(-0.00968753732741 -1.23935139928e-09 0.0500000007451)
(-0.00953139923513 -4.95740559714e-09 -0.0500000007451)
(-0.00953139923513 -4.95740559714e-09 0.0500000007451)
(-0.00937537290156 -1.23935137708e-08 -0.0500000007451)
(-0.00937537290156 -1.23935137708e-08 0.0500000007451)
(-0.0092194955796 -2.47870275416e-08 -0.0500000007451)
(-0.0092194955796 -2.47870275416e-08 0.0500000007451)
(-0.00906380452216 -4.33772981978e-08 -0.0500000007451)
(-0.00906380452216 -4.33772981978e-08 0.0500000007451)
(-0.00890833698213 -6.94036756954e-08 -0.0500000007451)
(-0.00890833698213 -6.94036756954e-08 0.0500000007451)
(-0.00875313114375 -1.04105517096e-07 -0.0500000007451)
(-0.00875313114375 -1.04105517096e-07 0.0500000007451)
(-0.00859822332859 -1.4872216525e-07 -0.0500000007451)
(-0.00859822332859 -1.4872216525e-07 0.0500000007451)
(-0.00844364985824 -2.04492977218e-07 -0.0500000007451)
(-0.00844364985824 -2.04492977218e-07 0.0500000007451)
(-0.00828945077956 -2.72657302958e-07 -0.0500000007451)
(-0.00828945077956 -2.72657302958e-07 0.0500000007451)
(-0.00813566055149 -3.54454499529e-07 -0.0500000007451)
(-0.00813566055149 -3.54454499529e-07 0.0500000007451)
(-0.00798231828958 -4.51123895573e-07 -0.0500000007451)
(-0.00798231828958 -4.51123895573e-07 0.0500000007451)
(-0.00782946031541 -5.63904904993e-07 -0.0500000007451)
(-0.00782946031541 -5.63904904993e-07 0.0500000007451)
(-0.00767712388188 -6.94036771165e-07 -0.0500000007451)
(-0.00767712388188 -6.94036771165e-07 0.0500000007451)
(-0.00752534670755 -8.42758936415e-07 -0.0500000007451)
(-0.00752534670755 -8.42758936415e-07 0.0500000007451)
(-0.00737416604534 -1.01131070096e-06 -0.0500000007451)
(-0.00737416604534 -1.01131070096e-06 0.0500000007451)
(-0.00722361914814 -1.20093147871e-06 -0.0500000007451)
(-0.00722361914814 -1.20093147871e-06 0.0500000007451)
(-0.00707374280319 -1.41286056987e-06 -0.0500000007451)
(-0.00707374280319 -1.41286056987e-06 0.0500000007451)
(-0.00692457519472 -1.64833738836e-06 -0.0500000007451)
(-0.00692457519472 -1.64833738836e-06 0.0500000007451)
(-0.00677615264431 -1.90860123439e-06 -0.0500000007451)
(-0.00677615264431 -1.90860123439e-06 0.0500000007451)
(-0.00662851333618 -2.19489129449e-06 -0.0500000007451)
(-0.00662851333618 -2.19489129449e-06 0.0500000007451)
(-0.00648169359192 -2.50844732363e-06 -0.0500000007451)
(-0.00648169359192 -2.50844732363e-06 0.0500000007451)
(-0.00633573113009 -2.85050828097e-06 -0.0500000007451)
(-0.00633573113009 -2.85050828097e-06 0.0500000007451)
(-0.00619066366926 -3.22231358041e-06 -0.0500000007451)
(-0.00619066366926 -3.22231358041e-06 0.0500000007451)
(-0.00604652799666 -3.62510286323e-06 -0.0500000007451)
(-0.00604652799666 -3.62510286323e-06 0.0500000007451)
(-0.0059033613652 -4.06011531595e-06 -0.0500000007451)
(-0.0059033613652 -4.06011531595e-06 0.0500000007451)
(-0.00576120102778 -4.52859012512e-06 -0.0500000007451)
(-0.00576120102778 -4.52859012512e-06 0.0500000007451)
(-0.00562008423731 -5.03176670463e-06 -0.0500000007451)
(-0.00562008423731 -5.03176670463e-06 0.0500000007451)
(-0.00548004871234 -5.57088469577e-06 -0.0500000007451)
(-0.00548004871234 -5.57088469577e-06 0.0500000007451)
(-0.00534113170579 -6.14718283032e-06 -0.0500000007451)
(-0.00534113170579 -6.14718283032e-06 0.0500000007451)
(-0.00520336953923 -6.7619012043e-06 -0.0500000007451)
(-0.00520336953923 -6.7619012043e-06 0.0500000007451)
(-0.00506680039689 -7.4162785495e-06 -0.0500000007451)
(-0.00506680039689 -7.4162785495e-06 0.0500000007451)
(-0.00493146153167 -8.11155496194e-06 -0.0500000007451)
(-0.00493146153167 -8.11155496194e-06 0.0500000007451)
(-0.00479738973081 -8.84896871867e-06 -0.0500000007451)
(-0.00479738973081 -8.84896871867e-06 0.0500000007451)
(-0.00466462271288 -9.6297599157e-06 -0.0500000007451)
(-0.00466462271288 -9.6297599157e-06 0.0500000007451)
(-0.00453319773078 -1.04551681943e-05 -0.0500000007451)
(-0.00453319773078 -1.04551681943e-05 0.0500000007451)
(-0.00440315157175 -1.13264322863e-05 -0.0500000007451)
(-0.00440315157175 -1.13264322863e-05 0.0500000007451)
(-0.00427452195436 -1.22447918329e-05 -0.0500000007451)
(-0.00427452195436 -1.22447918329e-05 0.0500000007451)
(-0.0041473461315 -1.3211485566e-05 -0.0500000007451)
(-0.0041473461315 -1.3211485566e-05 0.0500000007451)
(-0.00402166135609 -1.42277540363e-05 -0.0500000007451)
(-0.00402166135609 -1.42277540363e-05 0.0500000007451)
(-0.00389750464819 -1.52948359755e-05 -0.0500000007451)
(-0.00389750464819 -1.52948359755e-05 0.0500000007451)
(-0.00377491349354 -1.6413969206e-05 -0.0500000007451)
(-0.00377491349354 -1.6413969206e-05 0.0500000007451)
(-0.00365392514504 -1.75863970071e-05 -0.0500000007451)
(-0.00365392514504 -1.75863970071e-05 0.0500000007451)
(-0.0035345768556 -1.88133544725e-05 -0.0500000007451)
(-0.0035345768556 -1.88133544725e-05 0.0500000007451)
(-0.00341690587811 -2.0096082153e-05 -0.0500000007451)
(-0.00341690587811 -2.0096082153e-05 0.0500000007451)
(-0.00330094969831 -2.14358224184e-05 -0.0500000007451)
(-0.00330094969831 -2.14358224184e-05 0.0500000007451)
(-0.00318674533628 -2.28338103625e-05 -0.0500000007451)
(-0.00318674533628 -2.28338103625e-05 0.0500000007451)
(-0.00307433004491 -2.4291286536e-05 -0.0500000007451)
(-0.00307433004491 -2.4291286536e-05 0.0500000007451)
(-0.00296374130994 -2.58094933088e-05 -0.0500000007451)
(-0.00296374130994 -2.58094933088e-05 0.0500000007451)
(-0.00285501638427 -2.73896657745e-05 -0.0500000007451)
(-0.00285501638427 -2.73896657745e-05 0.0500000007451)
(-0.00274819228798 -2.90330463031e-05 -0.0500000007451)
(-0.00274819228798 -2.90330463031e-05 0.0500000007451)
(-0.0026433065068 -3.07408736262e-05 -0.0500000007451)
(-0.0026433065068 -3.07408736262e-05 0.0500000007451)
(-0.00254039629363 -3.25143846567e-05 -0.0500000007451)
(-0.00254039629363 -3.25143846567e-05 0.0500000007451)
(-0.00243949890137 -3.43548199453e-05 -0.0500000007451)
(-0.00243949890137 -3.43548199453e-05 0.0500000007451)
(-0.00234065181576 -3.62634200428e-05 -0.0500000007451)
(-0.00234065181576 -3.62634200428e-05 0.0500000007451)
(-0.00224389182404 -3.82414255e-05 -0.0500000007451)
(-0.00224389182404 -3.82414255e-05 0.0500000007451)
(-0.00214925664477 -4.02900732297e-05 -0.0500000007451)
(-0.00214925664477 -4.02900732297e-05 0.0500000007451)
(-0.00205678329803 -4.24106037826e-05 -0.0500000007451)
(-0.00205678329803 -4.24106037826e-05 0.0500000007451)
(-0.00196650903672 -4.46042577096e-05 -0.0500000007451)
(-0.00196650903672 -4.46042577096e-05 0.0500000007451)
(-0.00187847146299 -4.68722682854e-05 -0.0500000007451)
(-0.00187847146299 -4.68722682854e-05 0.0500000007451)
(-0.00179270748049 -4.92158833367e-05 -0.0500000007451)
(-0.00179270748049 -4.92158833367e-05 0.0500000007451)
(-0.00170925457496 -5.16363361385e-05 -0.0500000007451)
(-0.00170925457496 -5.16363361385e-05 0.0500000007451)
(-0.00162814999931 -5.41348672414e-05 -0.0500000007451)
(-0.00162814999931 -5.41348672414e-05 0.0500000007451)
(-0.00154943089001 -5.67127208342e-05 -0.0500000007451)
(-0.00154943089001 -5.67127208342e-05 0.0500000007451)
(-0.00147305941209 -5.93654585828e-05 -0.0500000007451)
(-0.00147305941209 -5.93654585828e-05 0.0500000007451)
(-0.00139899726491 -6.20886567049e-05 -0.0500000007451)
(-0.00139899726491 -6.20886567049e-05 0.0500000007451)
(-0.0013272066135 -6.48778805044e-05 -0.0500000007451)
(-0.0013272066135 -6.48778805044e-05 0.0500000007451)
(-0.00125764927361 -6.7728695285e-05 -0.0500000007451)
(-0.00125764927361 -6.7728695285e-05 0.0500000007451)
(-0.00119028717745 -7.06366772647e-05 -0.0500000007451)
(-0.00119028717745 -7.06366772647e-05 0.0500000007451)
(-0.00112508237362 -7.35973953851e-05 -0.0500000007451)
(-0.00112508237362 -7.35973953851e-05 0.0500000007451)
(-0.00106199679431 -7.66064185882e-05 -0.0500000007451)
(-0.00106199679431 -7.66064185882e-05 0.0500000007451)
(-0.00100099225529 -7.96593158157e-05 -0.0500000007451)
(-0.00100099225529 -7.96593158157e-05 0.0500000007451)
(-0.000942030746955 -8.27516560093e-05 -0.0500000007451)
(-0.000942030746955 -8.27516560093e-05 0.0500000007451)
(-0.000885074259713 -8.58790081111e-05 -0.0500000007451)
(-0.000885074259713 -8.58790081111e-05 0.0500000007451)
(-0.000830084783956 -8.90369410627e-05 -0.0500000007451)
(-0.000830084783956 -8.90369410627e-05 0.0500000007451)
(-0.000777024135459 -9.22210310819e-05 -0.0500000007451)
(-0.000777024135459 -9.22210310819e-05 0.0500000007451)
(-0.000725854362827 -9.54268325586e-05 -0.0500000007451)
(-0.000725854362827 -9.54268325586e-05 0.0500000007451)
(-0.000676537340041 -9.86499289866e-05 -0.0500000007451)
(-0.000676537340041 -9.86499289866e-05 0.0500000007451)
(-0.0006290350575 -0.000101885882032 -0.0500000007451)
(-0.0006290350575 -0.000101885882032 0.0500000007451)
(-0.000583309447393 -0.000105130267912 -0.0500000007451)
(-0.000583309447393 -0.000105130267912 0.0500000007451)
(-0.000539322441909 -0.000108378648292 -0.0500000007451)
(-0.000539322441909 -0.000108378648292 0.0500000007451)
(-0.000497036031447 -0.000111626592115 -0.0500000007451)
(-0.000497036031447 -0.000111626592115 0.0500000007451)
(-0.000456412060885 -0.000114869682875 -0.0500000007451)
(-0.000456412060885 -0.000114869682875 0.0500000007451)
(-0.000417412578827 -0.000118103474961 -0.0500000007451)
(-0.000417412578827 -0.000118103474961 0.0500000007451)
(-0.000379999459255 -0.000121323537314 -0.0500000007451)
(-0.000379999459255 -0.000121323537314 0.0500000007451)
(-0.000344134663465 -0.00012452545343 -0.0500000007451)
(-0.000344134663465 -0.00012452545343 0.0500000007451)
(-0.000309780152747 -0.000127704770421 -0.0500000007451)
(-0.000309780152747 -0.000127704770421 0.0500000007451)
(-0.000276897859294 -0.000130857079057 -0.0500000007451)
(-0.000276897859294 -0.000130857079057 0.0500000007451)
(-0.000245449744398 -0.000133977955556 -0.0500000007451)
(-0.000245449744398 -0.000133977955556 0.0500000007451)
(-0.000215397711145 -0.000137062932481 -0.0500000007451)
(-0.000215397711145 -0.000137062932481 0.0500000007451)
(-0.00018670373538 -0.000140107615152 -0.0500000007451)
(-0.00018670373538 -0.000140107615152 0.0500000007451)
(-0.000159329763846 -0.000143107550684 -0.0500000007451)
(-0.000159329763846 -0.000143107550684 0.0500000007451)
(-0.000133237714181 -0.000146058315295 -0.0500000007451)
(-0.000133237714181 -0.000146058315295 0.0500000007451)
(-0.000108389562229 -0.000148955485201 -0.0500000007451)
(-0.000108389562229 -0.000148955485201 0.0500000007451)
(-8.47472256282e-05 -0.00015179462207 -0.0500000007451)
(-8.47472256282e-05 -0.00015179462207 0.0500000007451)
(-6.2272658397e-05 -0.000154571302119 -0.0500000007451)
(-6.2272658397e-05 -0.000154571302119 0.0500000007451)
(-4.09278000006e-05 -0.000157281087013 -0.0500000007451)
(-4.09278000006e-05 -0.000157281087013 0.0500000007451)
(-2.06746008189e-05 -0.000159919552971 -0.0500000007451)
(-2.06746008189e-05 -0.000159919552971 0.0500000007451)
(-1.47500247749e-06 -0.000162482261658 -0.0500000007451)
(-1.47500247749e-06 -0.000162482261658 0.0500000007451)
(1.6709052943e-05 -0.000164964789292 -0.0500000007451)
(1.6709052943e-05 -0.000164964789292 0.0500000007451)
(3.39156213158e-05 -0.000167362697539 -0.0500000007451)
(3.39156213158e-05 -0.000167362697539 0.0500000007451)
(5.01827562402e-05 -0.000169671562617 -0.0500000007451)
(5.01827562402e-05 -0.000169671562617 0.0500000007451)
(6.55485200696e-05 -0.000171886960743 -0.0500000007451)
(6.55485200696e-05 -0.000171886960743 0.0500000007451)
(8.00509587862e-05 -0.000174004439032 -0.0500000007451)
(8.00509587862e-05 -0.000174004439032 0.0500000007451)
(9.37281438382e-05 -0.000176019588253 -0.0500000007451)
(9.37281438382e-05 -0.000176019588253 0.0500000007451)
(0.000106618113932 -0.000177927970071 -0.0500000007451)
(0.000106618113932 -0.000177927970071 0.0500000007451)
(0.000118758936878 -0.000179725160706 -0.0500000007451)
(0.000118758936878 -0.000179725160706 0.0500000007451)
(0.000130188665935 -0.00018140670727 -0.0500000007451)
(0.000130188665935 -0.00018140670727 0.0500000007451)
(0.00014094535436 -0.000182968200534 -0.0500000007451)
(0.00014094535436 -0.000182968200534 0.0500000007451)
(0.000151067069964 -0.000184405216714 -0.0500000007451)
(0.000151067069964 -0.000184405216714 0.0500000007451)
(0.000160591851454 -0.000185713302926 -0.0500000007451)
(0.000160591851454 -0.000185713302926 0.0500000007451)
(0.00016955776664 -0.000186888035387 -0.0500000007451)
(0.00016955776664 -0.000186888035387 0.0500000007451)
(0.000178002868779 -0.000187924990314 -0.0500000007451)
(0.000178002868779 -0.000187924990314 0.0500000007451)
(0.000185965225683 -0.000188819729374 -0.0500000007451)
(0.000185965225683 -0.000188819729374 0.0500000007451)
(0.000193482861505 -0.000189567814232 -0.0500000007451)
(0.000193482861505 -0.000189567814232 0.0500000007451)
(0.00020059387316 -0.00019016485021 -0.0500000007451)
(0.00020059387316 -0.00019016485021 0.0500000007451)
(0.000207336284802 -0.00019060636987 -0.0500000007451)
(0.000207336284802 -0.00019060636987 0.0500000007451)
(0.000213748164242 -0.000190887949429 -0.0500000007451)
(0.000213748164242 -0.000190887949429 0.0500000007451)
(0.000219867564738 -0.000191005165107 -0.0500000007451)
(0.000219867564738 -0.000191005165107 0.0500000007451)
(0.0002257325541 -0.000190953593119 -0.0500000007451)
(0.0002257325541 -0.000190953593119 0.0500000007451)
(0.000231381185586 -0.000190728780581 -0.0500000007451)
(0.000231381185586 -0.000190728780581 0.0500000007451)
(0.000236851497903 -0.000190326332813 -0.0500000007451)
(0.000236851497903 -0.000190326332813 0.0500000007451)
(0.000242181573412 -0.000189741782378 -0.0500000007451)
(0.000242181573412 -0.000189741782378 0.0500000007451)
(0.000247409450822 -0.000188970705494 -0.0500000007451)
(0.000247409450822 -0.000188970705494 0.0500000007451)
(0.000252573168837 -0.00018800869293 -0.0500000007451)
(0.000252573168837 -0.00018800869293 0.0500000007451)
(0.000257710838923 -0.000186851291801 -0.0500000007451)
(0.000257710838923 -0.000186851291801 0.0500000007451)
(0.00026286044158 -0.000185494092875 -0.0500000007451)
(0.00026286044158 -0.000185494092875 0.0500000007451)
(0.000268060102826 -0.000183932643267 -0.0500000007451)
(0.000268060102826 -0.000183932643267 0.0500000007451)
(0.000273831887171 -0.000182363422937 -0.0500000007451)
(0.000273831887171 -0.000182363422937 0.0500000007451)
(0.000280697830021 -0.000180982882739 -0.0500000007451)
(0.000280697830021 -0.000180982882739 0.0500000007451)
(0.000289180054097 -0.000179987488082 -0.0500000007451)
(0.000289180054097 -0.000179987488082 0.0500000007451)
(0.000299800623907 -0.000179573718924 -0.0500000007451)
(0.000299800623907 -0.000179573718924 0.0500000007451)
(0.000313081603963 -0.00017993801157 -0.0500000007451)
(0.000313081603963 -0.00017993801157 0.0500000007451)
(0.00032954508788 -0.00018127686053 -0.0500000007451)
(0.00032954508788 -0.00018127686053 0.0500000007451)
(0.000349713140167 -0.00018378670211 -0.0500000007451)
(0.000349713140167 -0.00018378670211 0.0500000007451)
(0.000374107883545 -0.000187664001714 -0.0500000007451)
(0.000374107883545 -0.000187664001714 0.0500000007451)
(0.000403251353418 -0.000193105239305 -0.0500000007451)
(0.000403251353418 -0.000193105239305 0.0500000007451)
(0.000437665614299 -0.000200306880288 -0.0500000007451)
(0.000437665614299 -0.000200306880288 0.0500000007451)
(0.000477872788906 -0.000209465360967 -0.0500000007451)
(0.000477872788906 -0.000209465360967 0.0500000007451)
(0.000524394912645 -0.000220777175855 -0.0500000007451)
(0.000524394912645 -0.000220777175855 0.0500000007451)
(0.000577754108235 -0.000234438761254 -0.0500000007451)
(0.000577754108235 -0.000234438761254 0.0500000007451)
(0.000638472440187 -0.000250646611676 -0.0500000007451)
(0.000638472440187 -0.000250646611676 0.0500000007451)
(0.000707071973011 -0.000269597163424 -0.0500000007451)
(0.000707071973011 -0.000269597163424 0.0500000007451)
(0.000784074829426 -0.000291486881906 -0.0500000007451)
(0.000784074829426 -0.000291486881906 0.0500000007451)
(0.000870003015734 -0.000316512247082 -0.0500000007451)
(0.000870003015734 -0.000316512247082 0.0500000007451)
(0.000965378596447 -0.000344869709807 -0.0500000007451)
(0.000965378596447 -0.000344869709807 0.0500000007451)
(0.00107072375249 -0.000376755720936 -0.0500000007451)
(0.00107072375249 -0.000376755720936 0.0500000007451)
(0.00118656049017 -0.000412366789533 -0.0500000007451)
(0.00118656049017 -0.000412366789533 0.0500000007451)
(0.0013134109322 -0.000451899308246 -0.0500000007451)
(0.0013134109322 -0.000451899308246 0.0500000007451)
(0.00145179708488 -0.000495549815241 -0.0500000007451)
(0.00145179708488 -0.000495549815241 0.0500000007451)
(0.00160224118736 -0.000543514732271 -0.0500000007451)
(0.00160224118736 -0.000543514732271 0.0500000007451)
(0.00176526501309 -0.000595990510192 -0.0500000007451)
(0.00176526501309 -0.000595990510192 0.0500000007451)
(0.00194139103405 -0.000653173658065 -0.0500000007451)
(0.00194139103405 -0.000653173658065 0.0500000007451)
(0.00213114102371 -0.000715260626748 -0.0500000007451)
(0.00213114102371 -0.000715260626748 0.0500000007451)
(0.00233503710479 -0.000782447867095 -0.0500000007451)
(0.00233503710479 -0.000782447867095 0.0500000007451)
(0.00255360151641 -0.000854931771755 -0.0500000007451)
(0.00255360151641 -0.000854931771755 0.0500000007451)
(0.00278735626489 -0.000932908966206 -0.0500000007451)
(0.00278735626489 -0.000932908966206 0.0500000007451)
(0.00303682335652 -0.00101657572668 -0.0500000007451)
(0.00303682335652 -0.00101657572668 0.0500000007451)
(0.00330252479762 -0.00110612867866 -0.0500000007451)
(0.00330252479762 -0.00110612867866 0.0500000007451)
(0.00358498282731 -0.00120176421478 -0.0500000007451)
(0.00358498282731 -0.00120176421478 0.0500000007451)
(0.00388471945189 -0.00130367884412 -0.0500000007451)
(0.00388471945189 -0.00130367884412 0.0500000007451)
(0.0042022569105 -0.00141206895933 -0.0500000007451)
(0.0042022569105 -0.00141206895933 0.0500000007451)
(0.00453811697662 -0.00152713095304 -0.0500000007451)
(0.00453811697662 -0.00152713095304 0.0500000007451)
(0.00489282235503 -0.00164906156715 -0.0500000007451)
(0.00489282235503 -0.00164906156715 0.0500000007451)
(0.00526689412072 -0.00177805696148 -0.0500000007451)
(0.00526689412072 -0.00177805696148 0.0500000007451)
(0.00566085521132 -0.00191431376152 -0.0500000007451)
(0.00566085521132 -0.00191431376152 0.0500000007451)
(0.00607522716746 -0.00205802824348 -0.0500000007451)
(0.00607522716746 -0.00205802824348 0.0500000007451)
(0.00651053246111 -0.00220939726569 -0.0500000007451)
(0.00651053246111 -0.00220939726569 0.0500000007451)
(0.00696729263291 -0.00236861687154 -0.0500000007451)
(0.00696729263291 -0.00236861687154 0.0500000007451)
(0.00744603062049 -0.00253588380292 -0.0500000007451)
(0.00744603062049 -0.00253588380292 0.0500000007451)
(0.00794726796448 -0.00271139456891 -0.0500000007451)
(0.00794726796448 -0.00271139456891 0.0500000007451)
(0.00847152620554 -0.00289534521289 -0.0500000007451)
(0.00847152620554 -0.00289534521289 0.0500000007451)
(0.00901932921261 -0.00308793247677 -0.0500000007451)
(0.00901932921261 -0.00308793247677 0.0500000007451)
(0.00959119666368 -0.00328935286961 -0.0500000007451)
(0.00959119666368 -0.00328935286961 0.0500000007451)
(0.010187651962 -0.00349980290048 -0.0500000007451)
(0.010187651962 -0.00349980290048 0.0500000007451)
(0.0108092175797 -0.0037194788456 -0.0500000007451)
(0.0108092175797 -0.0037194788456 0.0500000007451)
(0.0114564150572 -0.00394857721403 -0.0500000007451)
(0.0114564150572 -0.00394857721403 0.0500000007451)
(0.0121297659352 -0.00418729474768 -0.0500000007451)
(0.0121297659352 -0.00418729474768 0.0500000007451)
(0.0128297936171 -0.00443582748994 -0.0500000007451)
(0.0128297936171 -0.00443582748994 0.0500000007451)
(0.0135570187122 -0.00469437194988 -0.0500000007451)
(0.0135570187122 -0.00469437194988 0.0500000007451)
(0.0143119646236 -0.00496312510222 -0.0500000007451)
(0.0143119646236 -0.00496312510222 0.0500000007451)
(0.0150951519608 -0.00524228299037 -0.0500000007451)
(0.0150951519608 -0.00524228299037 0.0500000007451)
(0.0159071050584 -0.00553204165772 -0.0500000007451)
(0.0159071050584 -0.00553204165772 0.0500000007451)
(0.016748342663 -0.00583259854466 -0.0500000007451)
(0.016748342663 -0.00583259854466 0.0500000007451)
(0.0176193900406 -0.00614414922893 -0.0500000007451)
(0.0176193900406 -0.00614414922893 0.0500000007451)
(0.0185207687318 -0.00646689068526 -0.0500000007451)
(0.0185207687318 -0.00646689068526 0.0500000007451)
(0.0194529984146 -0.00680101942271 -0.0500000007451)
(0.0194529984146 -0.00680101942271 0.0500000007451)
(0.020416604355 -0.00714673148468 -0.0500000007451)
(0.020416604355 -0.00714673148468 0.0500000007451)
(0.0214121062309 -0.0075042238459 -0.0500000007451)
(0.0214121062309 -0.0075042238459 0.0500000007451)
(0.0224400255829 -0.00787369254977 -0.0500000007451)
(0.0224400255829 -0.00787369254977 0.0500000007451)
(0.0235008876771 -0.00825533363968 -0.0500000007451)
(0.0235008876771 -0.00825533363968 0.0500000007451)
(0.0245952121913 -0.00864934548736 -0.0500000007451)
(0.0245952121913 -0.00864934548736 0.0500000007451)
(0.0257220156491 -0.0090553406626 -0.0500000007451)
(0.0257220156491 -0.0090553406626 0.0500000007451)
(0.026880312711 -0.00947293732315 -0.0500000007451)
(0.026880312711 -0.00947293732315 0.0500000007451)
(0.0280691199005 -0.00990174897015 -0.0500000007451)
(0.0280691199005 -0.00990174897015 0.0500000007451)
(0.0292874518782 -0.0103413909674 -0.0500000007451)
(0.0292874518782 -0.0103413909674 0.0500000007451)
(0.0305343233049 -0.0107914796099 -0.0500000007451)
(0.0305343233049 -0.0107914796099 0.0500000007451)
(0.0318087525666 -0.0112516302615 -0.0500000007451)
(0.0318087525666 -0.0112516302615 0.0500000007451)
(0.0331097505987 -0.011721458286 -0.0500000007451)
(0.0331097505987 -0.011721458286 0.0500000007451)
(0.0344363376498 -0.0122005781159 -0.0500000007451)
(0.0344363376498 -0.0122005781159 0.0500000007451)
(0.0357875227928 -0.0126886060461 -0.0500000007451)
(0.0357875227928 -0.0126886060461 0.0500000007451)
(0.0371623300016 -0.0131851574406 -0.0500000007451)
(0.0371623300016 -0.0131851574406 0.0500000007451)
(0.0385597683489 -0.013689847663 -0.0500000007451)
(0.0385597683489 -0.013689847663 0.0500000007451)
(0.0399788543582 -0.0142022911459 -0.0500000007451)
(0.0399788543582 -0.0142022911459 0.0500000007451)
(0.0414186045527 -0.0147221051157 -0.0500000007451)
(0.0414186045527 -0.0147221051157 0.0500000007451)
(0.0428780354559 -0.0152489030734 -0.0500000007451)
(0.0428780354559 -0.0152489030734 0.0500000007451)
(0.0443561598659 -0.0157823003829 -0.0500000007451)
(0.0443561598659 -0.0157823003829 0.0500000007451)
(0.0458519943058 -0.0163219142705 -0.0500000007451)
(0.0458519943058 -0.0163219142705 0.0500000007451)
(0.0473645552993 -0.0168673601002 -0.0500000007451)
(0.0473645552993 -0.0168673601002 0.0500000007451)
(0.0488928593695 -0.0174182504416 -0.0500000007451)
(0.0488928593695 -0.0174182504416 0.0500000007451)
(0.0504359193146 -0.0179742034525 -0.0500000007451)
(0.0504359193146 -0.0179742034525 0.0500000007451)
(0.0519927479327 -0.0185348335654 -0.0500000007451)
(0.0519927479327 -0.0185348335654 0.0500000007451)
(0.0535623691976 -0.0190997552127 -0.0500000007451)
(0.0535623691976 -0.0190997552127 0.0500000007451)
(0.0551437921822 -0.0196685846895 -0.0500000007451)
(0.0551437921822 -0.0196685846895 0.0500000007451)
(0.0567360296845 -0.020240938291 -0.0500000007451)
(0.0567360296845 -0.020240938291 0.0500000007451)
(0.0583381056786 -0.0208164304495 -0.0500000007451)
(0.0583381056786 -0.0208164304495 0.0500000007451)
(0.059949029237 -0.0213946755975 -0.0500000007451)
(0.059949029237 -0.0213946755975 0.0500000007451)
(0.0615678168833 -0.0219752900302 -0.0500000007451)
(0.0615678168833 -0.0219752900302 0.0500000007451)
(0.0631934851408 -0.0225578900427 -0.0500000007451)
(0.0631934851408 -0.0225578900427 0.0500000007451)
(0.0648250505328 -0.0231420900673 -0.0500000007451)
(0.0648250505328 -0.0231420900673 0.0500000007451)
(0.0664615258574 -0.0237275063992 -0.0500000007451)
(0.0664615258574 -0.0237275063992 0.0500000007451)
(0.0681019276381 -0.0243137516081 -0.0500000007451)
(0.0681019276381 -0.0243137516081 0.0500000007451)
(0.069745272398 -0.0249004457146 -0.0500000007451)
(0.069745272398 -0.0249004457146 0.0500000007451)
(0.0713905766606 -0.0254871994257 -0.0500000007451)
(0.0713905766606 -0.0254871994257 0.0500000007451)
(0.0730368494987 -0.0260736308992 -0.0500000007451)
(0.0730368494987 -0.0260736308992 0.0500000007451)
(0.0746831148863 -0.0266593545675 -0.0500000007451)
(0.0746831148863 -0.0266593545675 0.0500000007451)
(0.076328381896 -0.0272439867258 -0.0500000007451)
(0.076328381896 -0.0272439867258 0.0500000007451)
(0.0779716670513 -0.0278271399438 -0.0500000007451)
(0.0779716670513 -0.0278271399438 0.0500000007451)
(0.0796119868755 -0.028408434242 -0.0500000007451)
(0.0796119868755 -0.028408434242 0.0500000007451)
(0.0812483653426 -0.0289874803275 -0.0500000007451)
(0.0812483653426 -0.0289874803275 0.0500000007451)
(0.0828797966242 -0.0295638982207 -0.0500000007451)
(0.0828797966242 -0.0295638982207 0.0500000007451)
(0.0845053195953 -0.0301372986287 -0.0500000007451)
(0.0845053195953 -0.0301372986287 0.0500000007451)
(0.0861239358783 -0.0307072997093 -0.0500000007451)
(0.0861239358783 -0.0307072997093 0.0500000007451)
(0.0877346619964 -0.0312735177577 -0.0500000007451)
(0.0877346619964 -0.0312735177577 0.0500000007451)
(0.089336514473 -0.0318355634809 -0.0500000007451)
(0.089336514473 -0.0318355634809 0.0500000007451)
(0.090928517282 -0.0323930606246 -0.0500000007451)
(0.090928517282 -0.0323930606246 0.0500000007451)
(0.0925096720457 -0.0329456143081 -0.0500000007451)
(0.0925096720457 -0.0329456143081 0.0500000007451)
(0.094079002738 -0.0334928482771 -0.0500000007451)
(0.094079002738 -0.0334928482771 0.0500000007451)
(0.0956355258822 -0.034034371376 -0.0500000007451)
(0.0956355258822 -0.034034371376 0.0500000007451)
(0.0971782505512 -0.0345698036253 -0.0500000007451)
(0.0971782505512 -0.0345698036253 0.0500000007451)
(0.0987061932683 -0.0350987613201 -0.0500000007451)
(0.0987061932683 -0.0350987613201 0.0500000007451)
(0.100218378007 -0.0356208533049 -0.0500000007451)
(0.100218378007 -0.0356208533049 0.0500000007451)
(0.101713806391 -0.0361357033253 -0.0500000007451)
(0.101713806391 -0.0361357033253 0.0500000007451)
(0.103191509843 -0.0366429202259 -0.0500000007451)
(0.103191509843 -0.0366429202259 0.0500000007451)
(0.104650489986 -0.037142124027 -0.0500000007451)
(0.104650489986 -0.037142124027 0.0500000007451)
(0.106089763343 -0.0376329272985 -0.0500000007451)
(0.106089763343 -0.0376329272985 0.0500000007451)
(0.107508353889 -0.0381149426103 -0.0500000007451)
(0.107508353889 -0.0381149426103 0.0500000007451)
(0.108905278146 -0.0385877937078 -0.0500000007451)
(0.108905278146 -0.0385877937078 0.0500000007451)
(0.110279537737 -0.0390510857105 -0.0500000007451)
(0.110279537737 -0.0390510857105 0.0500000007451)
(0.111630164087 -0.039504442364 -0.0500000007451)
(0.111630164087 -0.039504442364 0.0500000007451)
(0.112956158817 -0.039947476238 -0.0500000007451)
(0.112956158817 -0.039947476238 0.0500000007451)
(0.114256553352 -0.0403798036277 -0.0500000007451)
(0.114256553352 -0.0403798036277 0.0500000007451)
(0.115530341864 -0.0408010371029 -0.0500000007451)
(0.115530341864 -0.0408010371029 0.0500000007451)
(0.116776563227 -0.0412107929587 -0.0500000007451)
(0.116776563227 -0.0412107929587 0.0500000007451)
(0.117994211614 -0.0416086874902 -0.0500000007451)
(0.117994211614 -0.0416086874902 0.0500000007451)
(0.119182318449 -0.0419943369925 -0.0500000007451)
(0.119182318449 -0.0419943369925 0.0500000007451)
(0.120341725647 -0.0423678122461 -0.0500000007451)
(0.120341725647 -0.0423678122461 0.0500000007451)
(0.121473297477 -0.0427291877568 -0.0500000007451)
(0.121473297477 -0.0427291877568 0.0500000007451)
(0.122577890754 -0.0430785343051 -0.0500000007451)
(0.122577890754 -0.0430785343051 0.0500000007451)
(0.123656347394 -0.0434159263968 -0.0500000007451)
(0.123656347394 -0.0434159263968 0.0500000007451)
(0.124709531665 -0.0437414385378 -0.0500000007451)
(0.124709531665 -0.0437414385378 0.0500000007451)
(0.125738307834 -0.0440551377833 -0.0500000007451)
(0.125738307834 -0.0440551377833 0.0500000007451)
(0.126743510365 -0.0443571023643 -0.0500000007451)
(0.126743510365 -0.0443571023643 0.0500000007451)
(0.127726003528 -0.0446473993361 -0.0500000007451)
(0.127726003528 -0.0446473993361 0.0500000007451)
(0.128686636686 -0.0449261069298 -0.0500000007451)
(0.128686636686 -0.0449261069298 0.0500000007451)
(0.129626274109 -0.0451932996511 -0.0500000007451)
(0.129626274109 -0.0451932996511 0.0500000007451)
(0.130545765162 -0.0454490408301 -0.0500000007451)
(0.130545765162 -0.0454490408301 0.0500000007451)
(0.13144595921 -0.0456934124231 -0.0500000007451)
(0.13144595921 -0.0456934124231 0.0500000007451)
(0.132327735424 -0.0459264852107 -0.0500000007451)
(0.132327735424 -0.0459264852107 0.0500000007451)
(0.133191913366 -0.0461483262479 -0.0500000007451)
(0.133191913366 -0.0461483262479 0.0500000007451)