/*--------------------------------*- C++ -*----------------------------------*\
| =========                 |                                                 |
| \\      /  F ield         | OpenFOAM: The Open Source CFD Toolbox           |
|  \\    /   O peration     | Version:  4.x                                   |
|   \\  /    A nd           | Web:      www.OpenFOAM.org                      |
|    \\/     M anipulation  |                                                 |
\*---------------------------------------------------------------------------*/
FoamFile
{
    version     2.0;
    format      ascii;
    class       featureEdgeMesh;
    location    "constant/triSurface";
    object      ribbon.eMesh;
}
// * * * * * * * * * * * * * * * * * * * * * * * * * * * * * * * * * * * * * //


// points:

131
(
(0 0 -0.0500000007451)
(0.00241217785515 -0.000396874995204 -0.0500000007451)
(0 0 0.0500000007451)
(0.00241217785515 -0.000396874995204 0.0500000007451)
(0.0048243557103 -0.000793749990407 -0.0500000007451)
(0.0048243557103 -0.000793749990407 0.0500000007451)
(0.00723653379828 -0.00119062501471 -0.0500000007451)
(0.00723653379828 -0.00119062501471 0.0500000007451)
(0.0096487114206 -0.00158749998081 -0.0500000007451)
(0.0096487114206 -0.00158749998081 0.0500000007451)
(0.0120608899742 -0.00198437506333 -0.0500000007451)
(0.0120608899742 -0.00198437506333 0.0500000007451)
(0.0144730675966 -0.00238125002943 -0.0500000007451)
(0.0144730675966 -0.00238125002943 0.0500000007451)
(0.0168852452189 -0.00277812499553 -0.0500000007451)
(0.0168852452189 -0.00277812499553 0.0500000007451)
(0.0192974228412 -0.00317499996163 -0.0500000007451)
(0.0192974228412 -0.00317499996163 0.0500000007451)
(0.0217096023262 -0.00357187492773 -0.0500000007451)
(0.0217096023262 -0.00357187492773 0.0500000007451)
(0.0241217799485 -0.00396875012666 -0.0500000007451)
(0.0241217799485 -0.00396875012666 0.0500000007451)
(0.0265339575708 -0.00436562485993 -0.0500000007451)
(0.0265339575708 -0.00436562485993 0.0500000007451)
(0.0289461351931 -0.00476250005886 -0.0500000007451)
(0.0289461351931 -0.00476250005886 0.0500000007451)
(0.0313583128154 -0.00515937479213 -0.0500000007451)
(0.0313583128154 -0.00515937479213 0.0500000007451)
(0.0337704904377 -0.00555624999106 -0.0500000007451)
(0.0337704904377 -0.00555624999106 0.0500000007451)
(0.0361826680601 -0.00595312518999 -0.0500000007451)
(0.0361826680601 -0.00595312518999 0.0500000007451)
(0.0385948456824 -0.00634999992326 -0.0500000007451)
(0.0385948456824 -0.00634999992326 0.0500000007451)
(0.04100702703 -0.00674687512219 -0.0500000007451)
(0.04100702703 -0.00674687512219 0.0500000007451)
(0.0434192046523 -0.00714374985546 -0.0500000007451)
(0.0434192046523 -0.00714374985546 0.0500000007451)
(0.0458313822746 -0.00754062505439 -0.0500000007451)
(0.0458313822746 -0.00754062505439 0.0500000007451)
(0.0482435598969 -0.00793750025332 -0.0500000007451)
(0.0482435598969 -0.00793750025332 0.0500000007451)
(0.0506557375193 -0.00833437498659 -0.0500000007451)
(0.0506557375193 -0.00833437498659 0.0500000007451)
(0.0530679151416 -0.00873124971986 -0.0500000007451)
(0.0530679151416 -0.00873124971986 0.0500000007451)
(0.0554800927639 -0.00912812538445 -0.0500000007451)
(0.0554800927639 -0.00912812538445 0.0500000007451)
(0.0578922703862 -0.00952500011772 -0.0500000007451)
(0.0578922703862 -0.00952500011772 0.0500000007451)
(0.0603044480085 -0.00992187485099 -0.0500000007451)
(0.0603044480085 -0.00992187485099 0.0500000007451)
(0.0627166256309 -0.0103187495843 -0.0500000007451)
(0.0627166256309 -0.0103187495843 0.0500000007451)
(0.0651288032532 -0.0107156252488 -0.0500000007451)
(0.0651288032532 -0.0107156252488 0.0500000007451)
(0.0675409808755 -0.0111124999821 -0.0500000007451)
(0.0675409808755 -0.0111124999821 0.0500000007451)
(0.0699531584978 -0.0115093747154 -0.0500000007451)
(0.0699531584978 -0.0115093747154 0.0500000007451)
(0.0723653361201 -0.01190625038 -0.0500000007451)
(0.0723653361201 -0.01190625038 0.0500000007451)
(0.0747775137424 -0.0123031251132 -0.0500000007451)
(0.0747775137424 -0.0123031251132 0.0500000007451)
(0.0771896913648 -0.0126999998465 -0.0500000007451)
(0.0771896913648 -0.0126999998465 0.0500000007451)
(0.0796018764377 -0.0130968745798 -0.0500000007451)
(0.0796018764377 -0.0130968745798 0.0500000007451)
(0.08201405406 -0.0134937502444 -0.0500000007451)
(0.08201405406 -0.0134937502444 0.0500000007451)
(0.0844262316823 -0.0138906249776 -0.0500000007451)
(0.0844262316823 -0.0138906249776 0.0500000007451)
(0.0868384093046 -0.0142874997109 -0.0500000007451)
(0.0868384093046 -0.0142874997109 0.0500000007451)
(0.0892505869269 -0.0146843753755 -0.0500000007451)
(0.0892505869269 -0.0146843753755 0.0500000007451)
(0.0916627645493 -0.0150812501088 -0.0500000007451)
(0.0916627645493 -0.0150812501088 0.0500000007451)
(0.0940749421716 -0.015478124842 -0.0500000007451)
(0.0940749421716 -0.015478124842 0.0500000007451)
(0.0964871197939 -0.0158750005066 -0.0500000007451)
(0.0964871197939 -0.0158750005066 0.0500000007451)
(0.0988992974162 -0.0162718743086 -0.0500000007451)
(0.0988992974162 -0.0162718743086 0.0500000007451)
(0.101311475039 -0.0166687499732 -0.0500000007451)
(0.101311475039 -0.0166687499732 0.0500000007451)
(0.103723652661 -0.0170656256378 -0.0500000007451)
(0.103723652661 -0.0170656256378 0.0500000007451)
(0.106135830283 -0.0174624994397 -0.0500000007451)
(0.106135830283 -0.0174624994397 0.0500000007451)
(0.108548007905 -0.0178593751043 -0.0500000007451)
(0.108548007905 -0.0178593751043 0.0500000007451)
(0.110960185528 -0.0182562507689 -0.0500000007451)
(0.110960185528 -0.0182562507689 0.0500000007451)
(0.11337236315 -0.0186531245708 -0.0500000007451)
(0.11337236315 -0.0186531245708 0.0500000007451)
(0.115784540772 -0.0190500002354 -0.0500000007451)
(0.115784540772 -0.0190500002354 0.0500000007451)
(0.118196718395 -0.0194468759 -0.0500000007451)
(0.118196718395 -0.0194468759 0.0500000007451)
(0.120608896017 -0.019843749702 -0.0500000007451)
(0.120608896017 -0.019843749702 0.0500000007451)
(0.123021073639 -0.0202406253666 -0.0500000007451)
(0.123021073639 -0.0202406253666 0.0500000007451)
(0.125433251262 -0.0206374991685 -0.0500000007451)
(0.125433251262 -0.0206374991685 0.0500000007451)
(0.127845436335 -0.0210343748331 -0.0500000007451)
(0.127845436335 -0.0210343748331 0.0500000007451)
(0.130257606506 -0.0214312504977 -0.0500000007451)
(0.130257606506 -0.0214312504977 0.0500000007451)
(0.132669791579 -0.0218281242996 -0.0500000007451)
(0.132669791579 -0.0218281242996 0.0500000007451)
(0.135081961751 -0.0222249999642 -0.0500000007451)
(0.135081961751 -0.0222249999642 0.0500000007451)
(0.137494146824 -0.0226218756288 -0.0500000007451)
(0.137494146824 -0.0226218756288 0.0500000007451)
(0.139906316996 -0.0230187494308 -0.0500000007451)
(0.139906316996 -0.0230187494308 0.0500000007451)
(0.142318502069 -0.0234156250954 -0.0500000007451)
(0.142318502069 -0.0234156250954 0.0500000007451)
(0.14473067224 -0.02381250076 -0.0500000007451)
(0.14473067224 -0.02381250076 0.0500000007451)
(0.147142857313 -0.0242093745619 -0.0500000007451)
(0.147142857313 -0.0242093745619 0.0500000007451)
(0.149555027485 -0.0246062502265 -0.0500000007451)
(0.149555027485 -0.0246062502265 0.0500000007451)
(0.151967212558 -0.0250031258911 -0.0500000007451)
(0.151967212558 -0.0250031258911 0.0500000007451)
(0.15437938273 -0.025399999693 -0.0500000007451)
(0.15437938273 -0.025399999693 0.0500000007451)
(0 0 0)
)


// edges:

260
(
(6 5)
(7 6)
(8 7)
(10 9)
(11 10)
(18 17)
(19 18)
(20 19)
(23 22)
(27 26)
(34 33)
(35 34)
(37 36)
(45 44)
(53 52)
(59 58)
(66 65)
(67 66)
(73 72)
(79 78)
(80 79)
(83 82)
(84 83)
(85 84)
(86 85)
(89 88)
(90 89)
(91 90)
(92 91)
(95 94)
(96 95)
(97 96)
(98 97)
(101 100)
(102 101)
(105 104)
(107 106)
(108 107)
(111 110)
(112 111)
(115 114)
(116 115)
(119 118)
(120 119)
(123 122)
(124 123)
(127 126)
(128 127)
(1 2)
(3 1)
(22 21)
(26 25)
(32 31)
(36 35)
(42 41)
(43 42)
(44 43)
(48 47)
(49 48)
(50 49)
(51 50)
(52 51)
(56 55)
(57 56)
(58 57)
(62 61)
(63 62)
(64 63)
(70 69)
(71 70)
(72 71)
(76 75)
(77 76)
(78 77)
(4 3)
(5 4)
(9 8)
(12 11)
(13 12)
(14 13)
(15 14)
(16 15)
(17 16)
(21 20)
(24 23)
(25 24)
(28 27)
(29 28)
(30 29)
(31 30)
(33 32)
(38 37)
(39 38)
(40 39)
(41 40)
(46 45)
(47 46)
(54 53)
(55 54)
(60 59)
(61 60)
(65 64)
(68 67)
(69 68)
(74 73)
(75 74)
(81 80)
(82 81)
(87 86)
(88 87)
(93 92)
(94 93)
(99 98)
(100 99)
(103 102)
(104 103)
(106 105)
(109 108)
(110 109)
(113 112)
(114 113)
(117 116)
(118 117)
(121 120)
(122 121)
(125 124)
(126 125)
(0 1)
(2 0)
(2 3)
(1 4)
(3 5)
(4 6)
(5 7)
(6 8)
(7 9)
(8 10)
(9 11)
(10 12)
(11 13)
(12 14)
(13 15)
(14 16)
(15 17)
(16 18)
(17 19)
(18 20)
(19 21)
(20 22)
(21 23)
(22 24)
(23 25)
(24 26)
(25 27)
(26 28)
(27 29)
(28 30)
(29 31)
(30 32)
(31 33)
(32 34)
(33 35)
(34 36)
(35 37)
(36 38)
(37 39)
(38 40)
(39 41)
(40 42)
(41 43)
(42 44)
(43 45)
(44 46)
(45 47)
(46 48)
(47 49)
(48 50)
(49 51)
(50 52)
(51 53)
(52 54)
(53 55)
(54 56)
(55 57)
(56 58)
(57 59)
(58 60)
(59 61)
(60 62)
(61 63)
(62 64)
(63 65)
(64 66)
(65 67)
(66 68)
(67 69)
(68 70)
(69 71)
(70 72)
(71 73)
(72 74)
(73 75)
(74 76)
(75 77)
(76 78)
(77 79)
(78 80)
(79 81)
(80 82)
(81 83)
(82 84)
(83 85)
(84 86)
(85 87)
(86 88)
(87 89)
(88 90)
(89 91)
(90 92)
(91 93)
(92 94)
(93 95)
(94 96)
(95 97)
(96 98)
(97 99)
(98 100)
(99 101)
(100 102)
(101 103)
(102 104)
(103 105)
(104 106)
(105 107)
(106 108)
(107 109)
(108 110)
(109 111)
(110 112)
(111 113)
(112 114)
(113 115)
(114 116)
(115 117)
(116 118)
(117 119)
(118 120)
(119 121)
(120 122)
(121 123)
(122 124)
(123 125)
(124 126)
(125 127)
(126 128)
(127 129)
(129 128)
2{130}
2{130}
2{130}
)

// * * * * * * * * * * * * * * * * * * * * * * * * * * * * * * * * * * * * * //


// ************************************************************************* //
