/*--------------------------------*- C++ -*----------------------------------*\
| =========                 |                                                 |
| \\      /  F ield         | OpenFOAM: The Open Source CFD Toolbox           |
|  \\    /   O peration     | Version:  4.x                                   |
|   \\  /    A nd           | Web:      www.OpenFOAM.org                      |
|    \\/     M anipulation  |                                                 |
\*---------------------------------------------------------------------------*/
FoamFile
{
    version     2.0;
    format      ascii;
    class       extendedFeatureEdgeMesh;
    location    "constant/extendedFeatureEdgeMesh";
    object      ribbon.extendedFeatureEdgeMesh;
}
// * * * * * * * * * * * * * * * * * * * * * * * * * * * * * * * * * * * * * //

// points

131
(
(0 0 -0.0500000007451)
(0.00241217785515 -0.000396874995204 -0.0500000007451)
(0 0 0.0500000007451)
(0.00241217785515 -0.000396874995204 0.0500000007451)
(0.0048243557103 -0.000793749990407 -0.0500000007451)
(0.0048243557103 -0.000793749990407 0.0500000007451)
(0.00723653379828 -0.00119062501471 -0.0500000007451)
(0.00723653379828 -0.00119062501471 0.0500000007451)
(0.0096487114206 -0.00158749998081 -0.0500000007451)
(0.0096487114206 -0.00158749998081 0.0500000007451)
(0.0120608899742 -0.00198437506333 -0.0500000007451)
(0.0120608899742 -0.00198437506333 0.0500000007451)
(0.0144730675966 -0.00238125002943 -0.0500000007451)
(0.0144730675966 -0.00238125002943 0.0500000007451)
(0.0168852452189 -0.00277812499553 -0.0500000007451)
(0.0168852452189 -0.00277812499553 0.0500000007451)
(0.0192974228412 -0.00317499996163 -0.0500000007451)
(0.0192974228412 -0.00317499996163 0.0500000007451)
(0.0217096023262 -0.00357187492773 -0.0500000007451)
(0.0217096023262 -0.00357187492773 0.0500000007451)
(0.0241217799485 -0.00396875012666 -0.0500000007451)
(0.0241217799485 -0.00396875012666 0.0500000007451)
(0.0265339575708 -0.00436562485993 -0.0500000007451)
(0.0265339575708 -0.00436562485993 0.0500000007451)
(0.0289461351931 -0.00476250005886 -0.0500000007451)
(0.0289461351931 -0.00476250005886 0.0500000007451)
(0.0313583128154 -0.00515937479213 -0.0500000007451)
(0.0313583128154 -0.00515937479213 0.0500000007451)
(0.0337704904377 -0.00555624999106 -0.0500000007451)
(0.0337704904377 -0.00555624999106 0.0500000007451)
(0.0361826680601 -0.00595312518999 -0.0500000007451)
(0.0361826680601 -0.00595312518999 0.0500000007451)
(0.0385948456824 -0.00634999992326 -0.0500000007451)
(0.0385948456824 -0.00634999992326 0.0500000007451)
(0.04100702703 -0.00674687512219 -0.0500000007451)
(0.04100702703 -0.00674687512219 0.0500000007451)
(0.0434192046523 -0.00714374985546 -0.0500000007451)
(0.0434192046523 -0.00714374985546 0.0500000007451)
(0.0458313822746 -0.00754062505439 -0.0500000007451)
(0.0458313822746 -0.00754062505439 0.0500000007451)
(0.0482435598969 -0.00793750025332 -0.0500000007451)
(0.0482435598969 -0.00793750025332 0.0500000007451)
(0.0506557375193 -0.00833437498659 -0.0500000007451)
(0.0506557375193 -0.00833437498659 0.0500000007451)
(0.0530679151416 -0.00873124971986 -0.0500000007451)
(0.0530679151416 -0.00873124971986 0.0500000007451)
(0.0554800927639 -0.00912812538445 -0.0500000007451)
(0.0554800927639 -0.00912812538445 0.0500000007451)
(0.0578922703862 -0.00952500011772 -0.0500000007451)
(0.0578922703862 -0.00952500011772 0.0500000007451)
(0.0603044480085 -0.00992187485099 -0.0500000007451)
(0.0603044480085 -0.00992187485099 0.0500000007451)
(0.0627166256309 -0.0103187495843 -0.0500000007451)
(0.0627166256309 -0.0103187495843 0.0500000007451)
(0.0651288032532 -0.0107156252488 -0.0500000007451)
(0.0651288032532 -0.0107156252488 0.0500000007451)
(0.0675409808755 -0.0111124999821 -0.0500000007451)
(0.0675409808755 -0.0111124999821 0.0500000007451)
(0.0699531584978 -0.0115093747154 -0.0500000007451)
(0.0699531584978 -0.0115093747154 0.0500000007451)
(0.0723653361201 -0.01190625038 -0.0500000007451)
(0.0723653361201 -0.01190625038 0.0500000007451)
(0.0747775137424 -0.0123031251132 -0.0500000007451)
(0.0747775137424 -0.0123031251132 0.0500000007451)
(0.0771896913648 -0.0126999998465 -0.0500000007451)
(0.0771896913648 -0.0126999998465 0.0500000007451)
(0.0796018764377 -0.0130968745798 -0.0500000007451)
(0.0796018764377 -0.0130968745798 0.0500000007451)
(0.08201405406 -0.0134937502444 -0.0500000007451)
(0.08201405406 -0.0134937502444 0.0500000007451)
(0.0844262316823 -0.0138906249776 -0.0500000007451)
(0.0844262316823 -0.0138906249776 0.0500000007451)
(0.0868384093046 -0.0142874997109 -0.0500000007451)
(0.0868384093046 -0.0142874997109 0.0500000007451)
(0.0892505869269 -0.0146843753755 -0.0500000007451)
(0.0892505869269 -0.0146843753755 0.0500000007451)
(0.0916627645493 -0.0150812501088 -0.0500000007451)
(0.0916627645493 -0.0150812501088 0.0500000007451)
(0.0940749421716 -0.015478124842 -0.0500000007451)
(0.0940749421716 -0.015478124842 0.0500000007451)
(0.0964871197939 -0.0158750005066 -0.0500000007451)
(0.0964871197939 -0.0158750005066 0.0500000007451)
(0.0988992974162 -0.0162718743086 -0.0500000007451)
(0.0988992974162 -0.0162718743086 0.0500000007451)
(0.101311475039 -0.0166687499732 -0.0500000007451)
(0.101311475039 -0.0166687499732 0.0500000007451)
(0.103723652661 -0.0170656256378 -0.0500000007451)
(0.103723652661 -0.0170656256378 0.0500000007451)
(0.106135830283 -0.0174624994397 -0.0500000007451)
(0.106135830283 -0.0174624994397 0.0500000007451)
(0.108548007905 -0.0178593751043 -0.0500000007451)
(0.108548007905 -0.0178593751043 0.0500000007451)
(0.110960185528 -0.0182562507689 -0.0500000007451)
(0.110960185528 -0.0182562507689 0.0500000007451)
(0.11337236315 -0.0186531245708 -0.0500000007451)
(0.11337236315 -0.0186531245708 0.0500000007451)
(0.115784540772 -0.0190500002354 -0.0500000007451)
(0.115784540772 -0.0190500002354 0.0500000007451)
(0.118196718395 -0.0194468759 -0.0500000007451)
(0.118196718395 -0.0194468759 0.0500000007451)
(0.120608896017 -0.019843749702 -0.0500000007451)
(0.120608896017 -0.019843749702 0.0500000007451)
(0.123021073639 -0.0202406253666 -0.0500000007451)
(0.123021073639 -0.0202406253666 0.0500000007451)
(0.125433251262 -0.0206374991685 -0.0500000007451)
(0.125433251262 -0.0206374991685 0.0500000007451)
(0.127845436335 -0.0210343748331 -0.0500000007451)
(0.127845436335 -0.0210343748331 0.0500000007451)
(0.130257606506 -0.0214312504977 -0.0500000007451)
(0.130257606506 -0.0214312504977 0.0500000007451)
(0.132669791579 -0.0218281242996 -0.0500000007451)
(0.132669791579 -0.0218281242996 0.0500000007451)
(0.135081961751 -0.0222249999642 -0.0500000007451)
(0.135081961751 -0.0222249999642 0.0500000007451)
(0.137494146824 -0.0226218756288 -0.0500000007451)
(0.137494146824 -0.0226218756288 0.0500000007451)
(0.139906316996 -0.0230187494308 -0.0500000007451)
(0.139906316996 -0.0230187494308 0.0500000007451)
(0.142318502069 -0.0234156250954 -0.0500000007451)
(0.142318502069 -0.0234156250954 0.0500000007451)
(0.14473067224 -0.02381250076 -0.0500000007451)
(0.14473067224 -0.02381250076 0.0500000007451)
(0.147142857313 -0.0242093745619 -0.0500000007451)
(0.147142857313 -0.0242093745619 0.0500000007451)
(0.149555027485 -0.0246062502265 -0.0500000007451)
(0.149555027485 -0.0246062502265 0.0500000007451)
(0.151967212558 -0.0250031258911 -0.0500000007451)
(0.151967212558 -0.0250031258911 0.0500000007451)
(0.15437938273 -0.025399999693 -0.0500000007451)
(0.15437938273 -0.025399999693 0.0500000007451)
(0 0 0)
)

// edges

260
(
(6 5)
(7 6)
(8 7)
(10 9)
(11 10)
(18 17)
(19 18)
(20 19)
(23 22)
(27 26)
(34 33)
(35 34)
(37 36)
(45 44)
(53 52)
(59 58)
(66 65)
(67 66)
(73 72)
(79 78)
(80 79)
(83 82)
(84 83)
(85 84)
(86 85)
(89 88)
(90 89)
(91 90)
(92 91)
(95 94)
(96 95)
(97 96)
(98 97)
(101 100)
(102 101)
(105 104)
(107 106)
(108 107)
(111 110)
(112 111)
(115 114)
(116 115)
(119 118)
(120 119)
(123 122)
(124 123)
(127 126)
(128 127)
(1 2)
(3 1)
(22 21)
(26 25)
(32 31)
(36 35)
(42 41)
(43 42)
(44 43)
(48 47)
(49 48)
(50 49)
(51 50)
(52 51)
(56 55)
(57 56)
(58 57)
(62 61)
(63 62)
(64 63)
(70 69)
(71 70)
(72 71)
(76 75)
(77 76)
(78 77)
(4 3)
(5 4)
(9 8)
(12 11)
(13 12)
(14 13)
(15 14)
(16 15)
(17 16)
(21 20)
(24 23)
(25 24)
(28 27)
(29 28)
(30 29)
(31 30)
(33 32)
(38 37)
(39 38)
(40 39)
(41 40)
(46 45)
(47 46)
(54 53)
(55 54)
(60 59)
(61 60)
(65 64)
(68 67)
(69 68)
(74 73)
(75 74)
(81 80)
(82 81)
(87 86)
(88 87)
(93 92)
(94 93)
(99 98)
(100 99)
(103 102)
(104 103)
(106 105)
(109 108)
(110 109)
(113 112)
(114 113)
(117 116)
(118 117)
(121 120)
(122 121)
(125 124)
(126 125)
(0 1)
(2 0)
(2 3)
(1 4)
(3 5)
(4 6)
(5 7)
(6 8)
(7 9)
(8 10)
(9 11)
(10 12)
(11 13)
(12 14)
(13 15)
(14 16)
(15 17)
(16 18)
(17 19)
(18 20)
(19 21)
(20 22)
(21 23)
(22 24)
(23 25)
(24 26)
(25 27)
(26 28)
(27 29)
(28 30)
(29 31)
(30 32)
(31 33)
(32 34)
(33 35)
(34 36)
(35 37)
(36 38)
(37 39)
(38 40)
(39 41)
(40 42)
(41 43)
(42 44)
(43 45)
(44 46)
(45 47)
(46 48)
(47 49)
(48 50)
(49 51)
(50 52)
(51 53)
(52 54)
(53 55)
(54 56)
(55 57)
(56 58)
(57 59)
(58 60)
(59 61)
(60 62)
(61 63)
(62 64)
(63 65)
(64 66)
(65 67)
(66 68)
(67 69)
(68 70)
(69 71)
(70 72)
(71 73)
(72 74)
(73 75)
(74 76)
(75 77)
(76 78)
(77 79)
(78 80)
(79 81)
(80 82)
(81 83)
(82 84)
(83 85)
(84 86)
(85 87)
(86 88)
(87 89)
(88 90)
(89 91)
(90 92)
(91 93)
(92 94)
(93 95)
(94 96)
(95 97)
(96 98)
(97 99)
(98 100)
(99 101)
(100 102)
(101 103)
(102 104)
(103 105)
(104 106)
(105 107)
(106 108)
(107 109)
(108 110)
(109 111)
(110 112)
(111 113)
(112 114)
(113 115)
(114 116)
(115 117)
(116 118)
(117 119)
(118 120)
(119 121)
(120 122)
(121 123)
(122 124)
(123 125)
(124 126)
(125 127)
(126 128)
(127 129)
(129 128)
2{130}
2{130}
2{130}
)

// concaveStart mixedStart nonFeatureStart
0 0 131
// internalStart flatStart openStart multipleStart
74 127 127 257
// normals

130
(
(0 0 0)
(0 0 0)
(-0.162347042641 -0.986733721804 0)
(0.162347042641 0.986733721804 0)
(-0.162347042641 -0.986733721804 0)
(0.162347042641 0.986733721804 0)
(-0.162347038976 -0.986733722407 0)
(0.162347038976 0.986733722407 0)
(-0.162347046307 -0.986733721201 0)
(0.162347046307 0.986733721201 0)
(-0.162347031644 -0.986733723614 0)
(0.162347031644 0.986733723614 0)
(-0.162347046307 -0.986733721201 0)
(0.162347046307 0.986733721201 0)
(-0.162347046307 -0.986733721201 0)
(0.162347046307 0.986733721201 0)
(-0.162347046307 -0.986733721201 0)
(0.162347046307 0.986733721201 0)
(-0.162346924249 -0.986733741283 0)
(0.162346924249 0.986733741283 0)
(-0.162347139039 -0.986733705944 0)
(0.162347139039 0.986733705944 0)
(-0.162346953575 -0.986733736458 0)
(0.162346953575 0.986733736458 0)
(-0.162347139039 -0.986733705944 0)
(0.162347139039 0.986733705944 0)
(-0.162346953575 -0.986733736458 0)
(0.162346953575 0.986733736458 0)
(-0.162347139039 -0.986733705944 0)
(0.162347139039 0.986733705944 0)
(-0.162347139039 -0.986733705944 0)
(0.162347139039 0.986733705944 0)
(-0.162346953575 -0.986733736458 0)
(0.162346953575 0.986733736458 0)
(-0.162346894924 -0.986733746108 0)
(0.162346894924 0.986733746108 0)
(-0.162346953575 -0.986733736458 0)
(0.162346953575 0.986733736458 0)
(-0.162347139039 -0.986733705944 0)
(0.162347139039 0.986733705944 0)
(-0.162347139039 -0.986733705944 0)
(0.162347139039 0.986733705944 0)
(-0.162346953575 -0.986733736458 0)
(0.162346953575 0.986733736458 0)
(-0.162346953575 -0.986733736458 0)
(0.162346953575 0.986733736458 0)
(-0.162347324504 -0.986733675429 0)
(0.162347324504 0.986733675429 0)
(-0.162346953575 -0.986733736458 0)
(0.162346953575 0.986733736458 0)
(-0.162346953575 -0.986733736458 0)
(0.162346953575 0.986733736458 0)
(-0.162346953575 -0.986733736458 0)
(0.162346953575 0.986733736458 0)
(-0.162347324504 -0.986733675429 0)
(0.162347324504 0.986733675429 0)
(-0.162346953575 -0.986733736458 0)
(0.162346953575 0.986733736458 0)
(-0.162346953575 -0.986733736458 0)
(0.162346953575 0.986733736458 0)
(-0.162347324504 -0.986733675429 0)
(0.162347324504 0.986733675429 0)
(-0.162346953575 -0.986733736458 0)
(0.162346953575 0.986733736458 0)
(-0.162346953575 -0.986733736458 0)
(0.162346953575 0.986733736458 0)
(-0.162346465346 -0.986733816786 0)
(0.162346465346 0.986733816786 0)
(-0.162347324504 -0.986733675429 0)
(0.162347324504 0.986733675429 0)
(-0.162346953575 -0.986733736458 0)
(0.162346953575 0.986733736458 0)
(-0.162346953575 -0.986733736458 0)
(0.162346953575 0.986733736458 0)
(-0.162347324504 -0.986733675429 0)
(0.162347324504 0.986733675429 0)
(-0.162346953575 -0.986733736458 0)
(0.162346953575 0.986733736458 0)
(-0.162346953575 -0.986733736458 0)
(0.162346953575 0.986733736458 0)
(-0.162347324504 -0.986733675429 0)
(0.162347324504 0.986733675429 0)
(-0.162346582646 -0.986733797487 0)
(0.162346582646 0.986733797487 0)
(-0.162347324504 -0.986733675429 0)
(0.162347324504 0.986733675429 0)
(-0.162347324504 -0.986733675429 0)
(0.162347324504 0.986733675429 0)
(-0.162346582646 -0.986733797487 0)
(0.162346582646 0.986733797487 0)
(-0.162347324504 -0.986733675429 0)
(0.162347324504 0.986733675429 0)
(-0.162347324504 -0.986733675429 0)
(0.162347324504 0.986733675429 0)
(-0.162346582646 -0.986733797487 0)
(0.162346582646 0.986733797487 0)
(-0.162347324504 -0.986733675429 0)
(0.162347324504 0.986733675429 0)
(-0.162347324504 -0.986733675429 0)
(0.162347324504 0.986733675429 0)
(-0.162346582646 -0.986733797487 0)
(0.162346582646 0.986733797487 0)
(-0.162347324504 -0.986733675429 0)
(0.162347324504 0.986733675429 0)
(-0.162346582646 -0.986733797487 0)
(0.162346582646 0.986733797487 0)
(-0.162346836274 -0.986733755758 0)
(0.162346836274 0.986733755758 0)
(-0.162347812737 -0.9867335951 0)
(0.162347812737 0.9867335951 0)
(-0.162346094418 -0.986733877815 0)
(0.162346094418 0.986733877815 0)
(-0.162347812737 -0.9867335951 0)
(0.162347812737 0.9867335951 0)
(-0.162346836274 -0.986733755758 0)
(0.162346836274 0.986733755758 0)
(-0.162347070877 -0.986733717159 0)
(0.162347070877 0.986733717159 0)
(-0.162346836274 -0.986733755758 0)
(0.162346836274 0.986733755758 0)
(-0.162347812737 -0.9867335951 0)
(0.162347812737 0.9867335951 0)
(-0.162346094418 -0.986733877815 0)
(0.162346094418 0.986733877815 0)
(-0.162347812737 -0.9867335951 0)
(0.162347812737 0.9867335951 0)
(-0.162346836274 -0.986733755758 0)
(0.162346836274 0.986733755758 0)
(-0.162347070877 -0.986733717159 0)
(0.162347070877 0.986733717159 0)
)

// normal volume types

130
(
0
0
0
0
0
0
0
0
0
0
0
0
0
0
0
0
0
0
0
0
0
0
0
0
0
0
0
0
0
0
0
0
0
0
0
0
0
0
0
0
0
0
0
0
0
0
0
0
0
0
0
0
0
0
0
0
0
0
0
0
0
0
0
0
0
0
0
0
0
0
0
0
0
0
0
0
0
0
0
0
0
0
0
0
0
0
0
0
0
0
0
0
0
0
0
0
0
0
0
0
0
0
0
0
0
0
0
0
0
0
0
0
0
0
0
0
0
0
0
0
0
0
0
0
0
0
0
0
0
0
)

// normalDirections

260
(
2{1}
2{1}
2{1}
2{1}
2{1}
2{1}
2{1}
2{1}
2{1}
2{1}
2{1}
2{1}
2{1}
2{1}
2{1}
2{1}
2{1}
2{1}
2{1}
2{1}
2{1}
2{1}
2{1}
2{1}
2{1}
2{1}
2{1}
2{1}
2{1}
2{1}
2{1}
2{1}
2{1}
2{1}
2{1}
2{1}
2{1}
2{1}
2{1}
2{1}
2{1}
2{1}
2{1}
2{1}
2{1}
2{1}
2{1}
2{1}
2{1}
2{1}
2{1}
2{1}
2{1}
2{1}
2{1}
2{1}
2{1}
2{1}
2{1}
2{1}
2{1}
2{1}
2{1}
2{1}
2{1}
2{1}
2{1}
2{1}
2{1}
2{1}
2{1}
2{1}
2{1}
2{1}
2{1}
2{1}
2{1}
2{1}
2{1}
2{1}
2{1}
2{1}
2{1}
2{1}
2{1}
2{1}
2{1}
2{1}
2{1}
2{1}
2{1}
2{1}
2{1}
2{1}
2{1}
2{1}
2{1}
2{1}
2{1}
2{1}
2{1}
2{1}
2{1}
2{1}
2{1}
2{1}
2{1}
2{1}
2{1}
2{1}
2{1}
2{1}
2{1}
2{1}
2{1}
2{1}
2{1}
2{1}
2{1}
2{1}
2{1}
2{1}
2{1}
2{1}
2{1}
2{1}
2{1}
1(1)
1(1)
1(1)
1(1)
1(1)
1(1)
1(1)
1(1)
1(1)
1(1)
1(1)
1(1)
1(1)
1(1)
1(1)
1(1)
1(1)
1(1)
1(1)
1(1)
1(1)
1(1)
1(1)
1(1)
1(1)
1(1)
1(1)
1(1)
1(1)
1(1)
1(1)
1(1)
1(1)
1(1)
1(1)
1(1)
1(1)
1(1)
1(1)
1(1)
1(1)
1(1)
1(1)
1(1)
1(1)
1(1)
1(1)
1(1)
1(1)
1(1)
1(1)
1(1)
1(1)
1(1)
1(1)
1(1)
1(1)
1(1)
1(1)
1(1)
1(1)
1(1)
1(1)
1(1)
1(1)
1(1)
1(1)
1(1)
1(1)
1(1)
1(1)
1(1)
1(1)
1(1)
1(1)
1(1)
1(1)
1(1)
1(1)
1(1)
1(1)
1(1)
1(1)
1(1)
1(1)
1(1)
1(1)
1(1)
1(1)
1(1)
1(1)
1(1)
1(1)
1(1)
1(1)
1(1)
1(1)
1(1)
1(1)
1(1)
1(1)
1(1)
1(1)
1(1)
1(1)
1(1)
1(1)
1(1)
1(1)
1(1)
1(1)
1(1)
1(1)
1(1)
1(1)
1(1)
1(1)
1(1)
1(1)
1(1)
1(1)
1(1)
1(1)
1(1)
1(1)
1(1)
1(1)
1(1)
1(1)
1(1)
10{-1}
10{-1}
10{-1}
)

// edgeNormals

260
(
2(6 7)
2(7 8)
2(8 9)
2(10 11)
2(11 12)
2(18 19)
2(19 20)
2(20 21)
2(23 24)
2(27 28)
2(34 35)
2(35 36)
2(37 38)
2(45 46)
2(53 54)
2(59 60)
2(66 67)
2(67 68)
2(73 74)
2(79 80)
2(80 81)
2(83 84)
2(84 85)
2(85 86)
2(86 87)
2(89 90)
2(90 91)
2(91 92)
2(92 93)
2(95 96)
2(96 97)
2(97 98)
2(98 99)
2(101 102)
2(102 103)
2(105 106)
2(107 108)
2(108 109)
2(111 112)
2(112 113)
2(115 116)
2(116 117)
2(119 120)
2(120 121)
2(123 124)
2(124 125)
2(127 128)
2(128 129)
2(2 3)
2(3 4)
2(22 23)
2(26 27)
2(32 33)
2(36 37)
2(42 43)
2(43 44)
2(44 45)
2(48 49)
2(49 50)
2(50 51)
2(51 52)
2(52 53)
2(56 57)
2(57 58)
2(58 59)
2(62 63)
2(63 64)
2(64 65)
2(70 71)
2(71 72)
2(72 73)
2(76 77)
2(77 78)
2(78 79)
2(4 5)
2(5 6)
2(9 10)
2(12 13)
2(13 14)
2(14 15)
2(15 16)
2(16 17)
2(17 18)
2(21 22)
2(24 25)
2(25 26)
2(28 29)
2(29 30)
2(30 31)
2(31 32)
2(33 34)
2(38 39)
2(39 40)
2(40 41)
2(41 42)
2(46 47)
2(47 48)
2(54 55)
2(55 56)
2(60 61)
2(61 62)
2(65 66)
2(68 69)
2(69 70)
2(74 75)
2(75 76)
2(81 82)
2(82 83)
2(87 88)
2(88 89)
2(93 94)
2(94 95)
2(99 100)
2(100 101)
2(103 104)
2(104 105)
2(106 107)
2(109 110)
2(110 111)
2(113 114)
2(114 115)
2(117 118)
2(118 119)
2(121 122)
2(122 123)
2(125 126)
2(126 127)
1(2)
1(2)
1(3)
1(4)
1(5)
1(6)
1(7)
1(8)
1(9)
1(10)
1(11)
1(12)
1(13)
1(14)
1(15)
1(16)
1(17)
1(18)
1(19)
1(20)
1(21)
1(22)
1(23)
1(24)
1(25)
1(26)
1(27)
1(28)
1(29)
1(30)
1(31)
1(32)
1(33)
1(34)
1(35)
1(36)
1(37)
1(38)
1(39)
1(40)
1(41)
1(42)
1(43)
1(44)
1(45)
1(46)
1(47)
1(48)
1(49)
1(50)
1(51)
1(52)
1(53)
1(54)
1(55)
1(56)
1(57)
1(58)
1(59)
1(60)
1(61)
1(62)
1(63)
1(64)
1(65)
1(66)
1(67)
1(68)
1(69)
1(70)
1(71)
1(72)
1(73)
1(74)
1(75)
1(76)
1(77)
1(78)
1(79)
1(80)
1(81)
1(82)
1(83)
1(84)
1(85)
1(86)
1(87)
1(88)
1(89)
1(90)
1(91)
1(92)
1(93)
1(94)
1(95)
1(96)
1(97)
1(98)
1(99)
1(100)
1(101)
1(102)
1(103)
1(104)
1(105)
1(106)
1(107)
1(108)
1(109)
1(110)
1(111)
1(112)
1(113)
1(114)
1(115)
1(116)
1(117)
1(118)
1(119)
1(120)
1(121)
1(122)
1(123)
1(124)
1(125)
1(126)
1(127)
1(128)
1(129)
1(129)
10(0 1 1 1 1 1 1 1 1 1)
10(0 1 1 1 1 1 1 1 1 1)
10(0 1 1 1 1 1 1 1 1 1)
)

// featurePointNormals

131
(
1(2)
2(2 3)
2(2 3)
2(3 4)
2(4 5)
2(6 7)
2(6 7)
2(7 8)
2(8 9)
2(10 11)
2(10 11)
2(11 12)
2(12 13)
2(13 14)
2(14 15)
2(15 16)
2(16 17)
2(18 19)
2(18 19)
2(19 20)
2(20 21)
2(22 23)
2(23 24)
2(23 24)
2(24 25)
2(26 27)
2(27 28)
2(27 28)
2(28 29)
2(29 30)
2(30 31)
2(32 33)
2(32 33)
2(34 35)
2(34 35)
2(35 36)
2(37 38)
2(37 38)
2(38 39)
2(39 40)
2(40 41)
2(42 43)
2(42 43)
2(43 44)
2(45 46)
2(45 46)
2(46 47)
2(48 49)
2(48 49)
2(49 50)
2(50 51)
2(51 52)
2(53 54)
2(53 54)
2(54 55)
2(56 57)
2(56 57)
2(57 58)
2(59 60)
2(59 60)
2(60 61)
2(62 63)
2(62 63)
2(63 64)
2(64 65)
2(66 67)
2(66 67)
2(67 68)
2(68 69)
2(70 71)
2(70 71)
2(71 72)
2(73 74)
2(73 74)
2(74 75)
2(76 77)
2(76 77)
2(77 78)
2(79 80)
2(79 80)
2(80 81)
2(81 82)
2(83 84)
2(83 84)
2(84 85)
2(85 86)
2(86 87)
2(87 88)
2(89 90)
2(89 90)
2(90 91)
2(91 92)
2(92 93)
2(93 94)
2(95 96)
2(95 96)
2(96 97)
2(97 98)
2(98 99)
2(99 100)
2(101 102)
2(101 102)
2(102 103)
2(103 104)
2(105 106)
2(105 106)
2(107 108)
2(107 108)
2(108 109)
2(109 110)
2(111 112)
2(111 112)
2(112 113)
2(113 114)
2(115 116)
2(115 116)
2(116 117)
2(117 118)
2(119 120)
2(119 120)
2(120 121)
2(121 122)
2(123 124)
2(123 124)
2(124 125)
2(125 126)
2(127 128)
2(127 128)
2(128 129)
1(129)
2(0 1)
)

// featurePointEdges

131
(
2(127 128)
4(48 49 127 130)
3(48 128 129)
4(49 74 129 131)
4(74 75 130 132)
4(75 0 131 133)
4(0 1 132 134)
4(1 2 133 135)
4(2 76 134 136)
4(76 3 135 137)
4(3 4 136 138)
4(4 77 137 139)
4(77 78 138 140)
4(78 79 139 141)
4(79 80 140 142)
4(80 81 141 143)
4(81 82 142 144)
4(82 5 143 145)
4(5 6 144 146)
4(6 7 145 147)
4(7 83 146 148)
4(83 50 147 149)
4(50 8 148 150)
4(8 84 149 151)
4(84 85 150 152)
4(85 51 151 153)
4(51 9 152 154)
4(9 86 153 155)
4(86 87 154 156)
4(87 88 155 157)
4(88 89 156 158)
4(89 52 157 159)
4(52 90 158 160)
4(90 10 159 161)
4(10 11 160 162)
4(11 53 161 163)
4(53 12 162 164)
4(12 91 163 165)
4(91 92 164 166)
4(92 93 165 167)
4(93 94 166 168)
4(94 54 167 169)
4(54 55 168 170)
4(55 56 169 171)
4(56 13 170 172)
4(13 95 171 173)
4(95 96 172 174)
4(96 57 173 175)
4(57 58 174 176)
4(58 59 175 177)
4(59 60 176 178)
4(60 61 177 179)
4(61 14 178 180)
4(14 97 179 181)
4(97 98 180 182)
4(98 62 181 183)
4(62 63 182 184)
4(63 64 183 185)
4(64 15 184 186)
4(15 99 185 187)
4(99 100 186 188)
4(100 65 187 189)
4(65 66 188 190)
4(66 67 189 191)
4(67 101 190 192)
4(101 16 191 193)
4(16 17 192 194)
4(17 102 193 195)
4(102 103 194 196)
4(103 68 195 197)
4(68 69 196 198)
4(69 70 197 199)
4(70 18 198 200)
4(18 104 199 201)
4(104 105 200 202)
4(105 71 201 203)
4(71 72 202 204)
4(72 73 203 205)
4(73 19 204 206)
4(19 20 205 207)
4(20 106 206 208)
4(106 107 207 209)
4(107 21 208 210)
4(21 22 209 211)
4(22 23 210 212)
4(23 24 211 213)
4(24 108 212 214)
4(108 109 213 215)
4(109 25 214 216)
4(25 26 215 217)
4(26 27 216 218)
4(27 28 217 219)
4(28 110 218 220)
4(110 111 219 221)
4(111 29 220 222)
4(29 30 221 223)
4(30 31 222 224)
4(31 32 223 225)
4(32 112 224 226)
4(112 113 225 227)
4(113 33 226 228)
4(33 34 227 229)
4(34 114 228 230)
4(114 115 229 231)
4(115 35 230 232)
4(35 116 231 233)
4(116 36 232 234)
4(36 37 233 235)
4(37 117 234 236)
4(117 118 235 237)
4(118 38 236 238)
4(38 39 237 239)
4(39 119 238 240)
4(119 120 239 241)
4(120 40 240 242)
4(40 41 241 243)
4(41 121 242 244)
4(121 122 243 245)
4(122 42 244 246)
4(42 43 245 247)
4(43 123 246 248)
4(123 124 247 249)
4(124 44 248 250)
4(44 45 249 251)
4(45 125 250 252)
4(125 126 251 253)
4(126 46 252 254)
4(46 47 253 255)
3(47 254 256)
2(255 256)
6(257 257 258 258 259 259)
)

// regionEdges

133
(
257
258
259
127
128
129
130
131
132
133
134
135
136
137
138
139
140
141
142
143
144
145
146
147
148
149
150
151
152
153
154
155
156
157
158
159
160
161
162
163
164
165
166
167
168
169
170
171
172
173
174
175
176
177
178
179
180
181
182
183
184
185
186
187
188
189
190
191
192
193
194
195
196
197
198
199
200
201
202
203
204
205
206
207
208
209
210
211
212
213
214
215
216
217
218
219
220
221
222
223
224
225
226
227
228
229
230
231
232
233
234
235
236
237
238
239
240
241
242
243
244
245
246
247
248
249
250
251
252
253
254
255
256
)



// ************************************************************************* //
