/*--------------------------------*- C++ -*----------------------------------*\
| =========                 |                                                 |
| \\      /  F ield         | OpenFOAM: The Open Source CFD Toolbox           |
|  \\    /   O peration     | Version:  5.x                                   |
|   \\  /    A nd           | Web:      www.OpenFOAM.org                      |
|    \\/     M anipulation  |                                                 |
\*---------------------------------------------------------------------------*/
FoamFile
{
    version     2.0;
    format      ascii;
    class       polyBoundaryMesh;
    location    "constant/polyMesh";
    object      boundary;
}
// * * * * * * * * * * * * * * * * * * * * * * * * * * * * * * * * * * * * * //

5
(
    inlet
    {
        type            patch;
        nFaces          30;
        startFace       21712;
    }
    outlet
    {
        type            patch;
        nFaces          57;
        startFace       21742;
    }
    upperWall
    {
        type            wall;
        inGroups        1(wall);
        nFaces          223;
        startFace       21799;
    }
    lowerWall
    {
        type            wall;
        inGroups        1(wall);
        nFaces          223;
        startFace       22022;
    }
    frontAndBack
    {
        type            empty;
        inGroups        1(empty);
        nFaces          21992;
        startFace       22245;
    }
)

// ************************************************************************* //
